5WYZ.B
  MOE2022           3D
IMMUNE SYSTEM
 19 21  0  0  0  0  0  0  0  0999 V2000
   61.4170   -3.1520   32.2790 O   0  0  0  0  0  0  0  0  0  0  0  0
   62.3960   -2.7560   31.4470 C   0  0  0  0  0  0  0  0  0  0  0  0
   63.5150   -1.9130   31.9180 C   0  0  0  0  0  0  0  0  0  0  0  0
   63.6880   -1.4390   33.3410 C   0  0  0  0  0  0  0  0  0  0  0  0
   64.5010   -1.5650   31.0130 C   0  0  0  0  0  0  0  0  0  0  0  0
   62.3620   -3.1370   30.1050 C   0  0  0  0  0  0  0  0  0  0  0  0
   63.3910   -2.7490   29.2510 C   0  0  0  0  0  0  0  0  0  0  0  0
   64.4440   -1.9720   29.7010 C   0  0  0  0  0  0  0  0  0  0  0  0
   65.5010   -1.5870   28.7390 C   0  0  0  0  0  0  0  0  0  0  0  0
   66.8300   -1.8560   28.9740 C   0  0  0  0  0  0  0  0  0  0  0  0
   67.8000   -1.4900   28.0360 C   0  0  0  0  0  0  0  0  0  0  0  0
   67.5170   -0.8470   26.9000 N   0  0  0  0  0  0  0  0  0  0  0  0
   65.1520   -0.8500   27.4970 C   0  0  0  0  0  0  0  0  0  0  0  0
   63.8470   -0.4890   27.1720 C   0  0  0  0  0  0  0  0  0  0  0  0
   63.6060    0.1640   25.9750 C   0  0  0  0  0  0  0  0  0  0  0  0
   64.6490    0.4630   25.1050 C   0  0  0  0  0  0  0  0  0  0  0  0
   64.3720    1.0900   23.9500 O   0  0  0  0  0  0  0  0  0  0  0  0
   65.9550    0.1060   25.3910 C   0  0  0  0  0  0  0  0  0  0  0  0
   66.2460   -0.5350   26.5800 C   0  0  0  0  0  0  0  0  0  0  0  0
  1  2  1  0  0  0  0
  2  3  2  0  0  0  0
  2  6  1  0  0  0  0
  3  4  1  0  0  0  0
  3  5  1  0  0  0  0
  5  8  2  0  0  0  0
  6  7  2  0  0  0  0
  7  8  1  0  0  0  0
  8  9  1  0  0  0  0
  9 10  1  0  0  0  0
  9 13  2  0  0  0  0
 10 11  2  0  0  0  0
 11 12  1  0  0  0  0
 12 19  2  0  0  0  0
 13 14  1  0  0  0  0
 13 19  1  0  0  0  0
 14 15  2  0  0  0  0
 15 16  1  0  0  0  0
 16 17  1  0  0  0  0
 16 18  2  0  0  0  0
 18 19  1  0  0  0  0
M  END
$$$$
