5WYZ.A
  MOE2022           3D
IMMUNE SYSTEM
 19 21  0  0  0  0  0  0  0  0999 V2000
   57.5340  -26.8020   30.9860 O   0  0  0  0  0  0  0  0  0  0  0  0
   58.4220  -27.4820   31.7230 C   0  0  0  0  0  0  0  0  0  0  0  0
   59.1900  -28.5380   31.0790 C   0  0  0  0  0  0  0  0  0  0  0  0
   58.8950  -28.8680   29.6390 C   0  0  0  0  0  0  0  0  0  0  0  0
   60.1290  -29.2510   31.8450 C   0  0  0  0  0  0  0  0  0  0  0  0
   58.7080  -27.1360   33.0660 C   0  0  0  0  0  0  0  0  0  0  0  0
   59.6730  -27.8540   33.7850 C   0  0  0  0  0  0  0  0  0  0  0  0
   60.3710  -28.9120   33.1880 C   0  0  0  0  0  0  0  0  0  0  0  0
   61.3890  -29.6480   34.0000 C   0  0  0  0  0  0  0  0  0  0  0  0
   62.6750  -29.8640   33.5440 C   0  0  0  0  0  0  0  0  0  0  0  0
   63.6020  -30.6010   34.3280 C   0  0  0  0  0  0  0  0  0  0  0  0
   63.3210  -31.1350   35.5220 N   0  0  0  0  0  0  0  0  0  0  0  0
   61.0580  -30.2360   35.3160 C   0  0  0  0  0  0  0  0  0  0  0  0
   59.7930  -30.1250   35.8630 C   0  0  0  0  0  0  0  0  0  0  0  0
   59.4970  -30.6630   37.0870 C   0  0  0  0  0  0  0  0  0  0  0  0
   60.4900  -31.3260   37.7970 C   0  0  0  0  0  0  0  0  0  0  0  0
   60.0910  -31.7740   38.9970 O   0  0  0  0  0  0  0  0  0  0  0  0
   61.7710  -31.4860   37.3180 C   0  0  0  0  0  0  0  0  0  0  0  0
   62.0960  -30.9700   36.0700 C   0  0  0  0  0  0  0  0  0  0  0  0
  1  2  1  0  0  0  0
  2  3  2  0  0  0  0
  2  6  1  0  0  0  0
  3  4  1  0  0  0  0
  3  5  1  0  0  0  0
  5  8  2  0  0  0  0
  6  7  2  0  0  0  0
  7  8  1  0  0  0  0
  8  9  1  0  0  0  0
  9 10  1  0  0  0  0
  9 13  2  0  0  0  0
 10 11  2  0  0  0  0
 11 12  1  0  0  0  0
 12 19  2  0  0  0  0
 13 14  1  0  0  0  0
 13 19  1  0  0  0  0
 14 15  2  0  0  0  0
 15 16  1  0  0  0  0
 16 17  1  0  0  0  0
 16 18  2  0  0  0  0
 18 19  1  0  0  0  0
M  END
$$$$
